**----------------------------------
**INDENTATION SIMULATION
**----------------------------------
**HEADER
*PREPRINT, ECHO=NO, MODEL=NO, HISTORY=NO, CONTACT=NO
**----------------------------------
** SAMPLE DEFINITION
*PART, NAME = P_SAMPLE
**----------------------------------
** NODES
**----------------------------------
*Node, NSET=ALLNODES
  1, 0.0, -1.0, 0.0
  2, 0.125, -1.0, 0.0
  3, 0.25, -1.0, 0.0
  4, 0.375, -1.0, 0.0
  5, 0.5, -1.0, 0.0
  6, 0.625, -1.0, 0.0
  7, 0.75, -1.0, 0.0
  8, 0.875, -1.0, 0.0
  9, 1.0, -1.0, 0.0
  10, 0.0, -0.875, 0.0
  11, 0.125, -0.875, 0.0
  12, 0.25, -0.875, 0.0
  13, 0.375, -0.875, 0.0
  14, 0.5, -0.875, 0.0
  15, 0.625, -0.875, 0.0
  16, 0.75, -0.875, 0.0
  17, 0.875, -0.875, 0.0
  18, 1.0, -0.875, 0.0
  19, 0.0, -0.75, 0.0
  20, 0.125, -0.75, 0.0
** ... 311 like lines cut
**----------------------------------
** NODE SETS
**----------------------------------
*NSET, NSET=CORE_NODES
1,2,3,4,5,6,7,8,9,
10,11,12,13,14,15,16,17,18,
19,20,21,22,23,24,25,26,27,
28,29,30,31,32,33,34,35,36,
37,38,39,40,41,42,43,44,45,
46,47,48,49,50,51,52,53,54,
55,56,57,58,59,60,61,62,63,
64,65,66,67,68,69,70,71,72,
73,74,75,76,77,78,79,80,81,
83,84,85,86,87,88,89,90,92,
93,94,95,96,97,98,99,101,102,
103,104,105,106,107,108,110,111,112,
113,114,115,116,117,119,120,121,122,
123,124,125,126,128,129,130,131,132,
133,134,135,137,138,139,140,141,142,
143,144,146,147,148,149,150,151,152,
153,155,156,157,158,159,160,161,162,
163,164,165,166,167,168,169,170,172,
173,174,175,176,177,178,179,181,182,
183,184,185,186,187,188,190,191,192,
** ... 5 like lines cut
*NSET, NSET=ALL_NODES
1,2,3,4,5,6,7,8,9,
10,11,12,13,14,15,16,17,18,
19,20,21,22,23,24,25,26,27,
28,29,30,31,32,33,34,35,36,
37,38,39,40,41,42,43,44,45,
46,47,48,49,50,51,52,53,54,
55,56,57,58,59,60,61,62,63,
64,65,66,67,68,69,70,71,72,
73,74,75,76,77,78,79,80,81,
83,84,85,86,87,88,89,90,92,
93,94,95,96,97,98,99,101,102,
103,104,105,106,107,108,110,111,112,
113,114,115,116,117,119,120,121,122,
123,124,125,126,128,129,130,131,132,
133,134,135,137,138,139,140,141,142,
143,144,146,147,148,149,150,151,152,
153,155,156,157,158,159,160,161,162,
163,164,165,166,167,168,169,170,172,
173,174,175,176,177,178,179,181,182,
183,184,185,186,187,188,190,191,192,
** ... 17 like lines cut
*NSET, NSET=REF_NODE
296,
*NSET, NSET=BOTTOM_NODES
296,297,298,348,349,
*NSET, NSET=TOP_NODES
73,74,75,76,77,78,79,80,81,
155,156,157,158,159,160,161,162,
*NSET, NSET=SURFACE_NODES
73,74,75,76,77,78,79,80,81,
155,156,157,158,159,160,161,162,
*NSET, NSET=SHELL_NODES
234,235,236,237,238,239,240,247,248,
250,251,252,259,260,262,263,264,271,
272,274,275,276,90,99,108,117,126,
135,144,153,162,163,164,165,166,167,
168,169,170,277,278,279,280,281,282,
283,290,291,293,294,295,296,297,298,
299,300,301,302,303,304,305,306,307,
308,309,310,311,312,313,314,315,316,
317,318,319,320,321,322,323,324,325,
326,327,328,329,330,331,332,333,334,
335,336,337,338,339,340,341,342,343,
348,349,351,352,354,355,357,358,360,
361,363,364,366,367,369,370,372,373,
375,376,378,379,381,382,384,385,387,
388,390,391,393,394,
*NSET, NSET=TIP_NODE
73,
*NSET, NSET=AXIS_NODES
1,10,19,28,37,46,55,64,73,
163,172,181,190,199,208,217,226,234,
237,277,280,296,299,302,305,308,311,
314,317,320,323,326,329,332,335,338,
341,
**----------------------------------
** ELEMENTS
**----------------------------------
*ELEMENT, TYPE=CAX4, ELSET=CAX4_ELEMENTS
  1, 1, 2, 11, 10, 
  2, 2, 3, 12, 11, 
  3, 3, 4, 13, 12, 
  4, 4, 5, 14, 13, 
  5, 5, 6, 15, 14, 
  6, 6, 7, 16, 15, 
  7, 7, 8, 17, 16, 
  8, 8, 9, 18, 17, 
  9, 10, 11, 20, 19, 
  10, 11, 12, 21, 20, 
  11, 12, 13, 22, 21, 
  12, 13, 14, 23, 22, 
  13, 14, 15, 24, 23, 
  14, 15, 16, 25, 24, 
  15, 16, 17, 26, 25, 
  16, 17, 18, 27, 26, 
  17, 19, 20, 29, 28, 
  18, 20, 21, 30, 29, 
  19, 21, 22, 31, 30, 
  20, 22, 23, 32, 31, 
** ... 272 like lines cut
**----------------------------------
** ELEMENT SETS
**----------------------------------
*ELSET, ELSET=ALL_ELEMENTS
  1, 2, 3, 4, 5, 6, 7, 8, 9,
 10, 11, 12, 13, 14, 15, 16, 17, 18,
 19, 20, 21, 22, 23, 24, 25, 26, 27,
 28, 29, 30, 31, 32, 33, 34, 35, 36,
 37, 38, 39, 40, 41, 42, 43, 44, 45,
 46, 47, 48, 49, 50, 51, 52, 53, 54,
 55, 56, 57, 58, 59, 60, 61, 62, 63,
 64, 65, 66, 67, 68, 69, 70, 71, 72,
 73, 74, 75, 76, 77, 78, 79, 80, 81,
 82, 83, 84, 85, 86, 87, 88, 89, 90,
 91, 92, 93, 94, 95, 96, 97, 98, 99,
 100, 101, 102, 103, 104, 105, 106, 107, 108,
 109, 110, 111, 112, 113, 114, 115, 116, 117,
 118, 119, 120, 121, 122, 123, 124, 125, 126,
 127, 128, 129, 130, 131, 132, 133, 134, 135,
 136, 137, 138, 139, 140, 141, 142, 143, 144,
 145, 146, 147, 148, 149, 150, 151, 152, 153,
 154, 155, 156, 157, 158, 159, 160, 161, 162,
 163, 164, 165, 166, 167, 168, 169, 170, 171,
 172, 173, 174, 175, 176, 177, 178, 179, 180,
** ... 13 like lines cut
*ELSET, ELSET=SHELL_ELEMENTS
  193, 194, 195, 196, 197, 198, 199, 200, 201,
 202, 203, 204, 205, 206, 207, 208, 209, 210,
 211, 212, 213, 214, 215, 216, 217, 218, 219,
 220, 221, 222, 223, 224, 225, 226, 227, 228,
 229, 230, 231, 232, 233, 234, 235, 236, 237,
 238, 239, 240, 241, 242, 243, 244, 245, 246,
 247, 248, 249, 250, 251, 252, 253, 254, 255,
 256, 257, 258, 259, 260, 261, 262, 263, 264,
 265, 266, 267, 268, 269, 270, 271, 272, 273,
 274, 275, 276, 277, 278, 279, 280, 281, 282,
 283, 284, 285, 286, 287, 288, 289, 290, 291,
 292,
*ELSET, ELSET=CORE_ELEMENTS
  1, 2, 3, 4, 5, 6, 7, 8, 9,
 10, 11, 12, 13, 14, 15, 16, 17, 18,
 19, 20, 21, 22, 23, 24, 25, 26, 27,
 28, 29, 30, 31, 32, 33, 34, 35, 36,
 37, 38, 39, 40, 41, 42, 43, 44, 45,
 46, 47, 48, 49, 50, 51, 52, 53, 54,
 55, 56, 57, 58, 59, 60, 61, 62, 63,
 64, 65, 66, 67, 68, 69, 70, 71, 72,
 73, 74, 75, 76, 77, 78, 79, 80, 81,
 82, 83, 84, 85, 86, 87, 88, 89, 90,
 91, 92, 93, 94, 95, 96, 97, 98, 99,
 100, 101, 102, 103, 104, 105, 106, 107, 108,
 109, 110, 111, 112, 113, 114, 115, 116, 117,
 118, 119, 120, 121, 122, 123, 124, 125, 126,
 127, 128, 129, 130, 131, 132, 133, 134, 135,
 136, 137, 138, 139, 140, 141, 142, 143, 144,
 145, 146, 147, 148, 149, 150, 151, 152, 153,
 154, 155, 156, 157, 158, 159, 160, 161, 162,
 163, 164, 165, 166, 167, 168, 169, 170, 171,
 172, 173, 174, 175, 176, 177, 178, 179, 180,
 181, 182, 183, 184, 185, 186, 187, 188, 189,
 190, 191, 192,
*ELSET, ELSET=SURFACE_ELEMENTS
  64, 128, 59, 124, 126, 63, 61, 122, 57,
 121, 58, 123, 60, 125, 62, 127,
**----------------------------------
** ELEMENT SURFACES
**----------------------------------
*SURFACE, TYPE=ELEMENT, NAME=SURFACE_FACES
 surface_elements, S3
*SOLID SECTION, ELSET = ALL_ELEMENTS, MATERIAL = SAMPLE_MAT
*END PART
**----------------------------------
** INDENTER DEFINITION
**----------------------------------
*PART, NAME = P_INDENTER
**----------------------------------
** NODES
**----------------------------------
*Node, NSET=ALLNODES
  1, 0.0, 1.0, 0.0
  2, 0.0977232679725, 1.00303304195, 0.0
  3, 0.196015700698, 1.01196730137, 0.0
  4, 0.295353114605, 1.02634859085, 0.0
  5, 0.396060228348, 1.04553163052, 0.0
  6, 0.498300790787, 1.06879425049, 0.0
  7, 0.602103948593, 1.09543180466, 0.0
  8, 0.707405805588, 1.12481200695, 0.0
  9, 0.814088702202, 1.15639936924, 0.0
  10, 0.0, 0.875, 0.0
  11, 0.0977530032396, 0.878461360931, 0.0
  12, 0.196239650249, 0.888602852821, 0.0
  13, 0.296040982008, 0.904770553112, 0.0
  14, 0.397504746914, 0.926075041294, 0.0
  15, 0.500752747059, 0.951575934887, 0.0
  16, 0.605740606785, 0.980409741402, 0.0
  17, 0.712327599525, 1.01184952259, 0.0
  18, 0.820331811905, 1.04531371593, 0.0
  19, 0.0, 0.75, 0.0
  20, 0.0977984964848, 0.754029512405, 0.0
** ... 311 like lines cut
**----------------------------------
** NODE SETS
**----------------------------------
*NSET, NSET=CORE_NODES
1,2,3,4,5,6,7,8,9,
10,11,12,13,14,15,16,17,18,
19,20,21,22,23,24,25,26,27,
28,29,30,31,32,33,34,35,36,
37,38,39,40,41,42,43,44,45,
46,47,48,49,50,51,52,53,54,
55,56,57,58,59,60,61,62,63,
64,65,66,67,68,69,70,71,72,
73,74,75,76,77,78,79,80,81,
83,84,85,86,87,88,89,90,92,
93,94,95,96,97,98,99,101,102,
103,104,105,106,107,108,110,111,112,
113,114,115,116,117,119,120,121,122,
123,124,125,126,128,129,130,131,132,
133,134,135,137,138,139,140,141,142,
143,144,146,147,148,149,150,151,152,
153,155,156,157,158,159,160,161,162,
163,164,165,166,167,168,169,170,172,
173,174,175,176,177,178,179,181,182,
183,184,185,186,187,188,190,191,192,
** ... 5 like lines cut
*NSET, NSET=ALL_NODES
1,2,3,4,5,6,7,8,9,
10,11,12,13,14,15,16,17,18,
19,20,21,22,23,24,25,26,27,
28,29,30,31,32,33,34,35,36,
37,38,39,40,41,42,43,44,45,
46,47,48,49,50,51,52,53,54,
55,56,57,58,59,60,61,62,63,
64,65,66,67,68,69,70,71,72,
73,74,75,76,77,78,79,80,81,
83,84,85,86,87,88,89,90,92,
93,94,95,96,97,98,99,101,102,
103,104,105,106,107,108,110,111,112,
113,114,115,116,117,119,120,121,122,
123,124,125,126,128,129,130,131,132,
133,134,135,137,138,139,140,141,142,
143,144,146,147,148,149,150,151,152,
153,155,156,157,158,159,160,161,162,
163,164,165,166,167,168,169,170,172,
173,174,175,176,177,178,179,181,182,
183,184,185,186,187,188,190,191,192,
** ... 17 like lines cut
*NSET, NSET=REF_NODE
296,
*NSET, NSET=BOTTOM_NODES
296,297,298,348,349,
*NSET, NSET=TOP_NODES
73,74,75,76,77,78,79,80,81,
155,156,157,158,159,160,161,162,
*NSET, NSET=XSYM_NODES
296,
*NSET, NSET=SURFACE_NODES
73,74,75,76,77,78,79,80,81,
155,156,157,158,159,160,161,162,
*NSET, NSET=RIGID_NODES
1,2,3,4,5,6,7,8,9,
10,11,12,13,14,15,16,17,18,
19,20,21,22,23,24,25,26,27,
28,29,30,31,32,33,34,35,36,
37,38,39,40,41,42,43,44,45,
46,47,48,49,50,51,52,53,54,
55,56,57,58,59,60,61,62,63,
64,65,66,67,68,69,70,71,72,
73,74,75,76,77,78,79,80,81,
83,84,85,86,87,88,89,90,92,
93,94,95,96,97,98,99,101,102,
103,104,105,106,107,108,110,111,112,
113,114,115,116,117,119,120,121,122,
123,124,125,126,128,129,130,131,132,
133,134,135,137,138,139,140,141,142,
143,144,146,147,148,149,150,151,152,
153,155,156,157,158,159,160,161,162,
163,164,165,166,167,168,169,170,172,
173,174,175,176,177,178,179,181,182,
183,184,185,186,187,188,190,191,192,
** ... 17 like lines cut
*NSET, NSET=SHELL_NODES
234,235,236,237,238,239,240,247,248,
250,251,252,259,260,262,263,264,271,
272,274,275,276,90,99,108,117,126,
135,144,153,162,163,164,165,166,167,
168,169,170,277,278,279,280,281,282,
283,290,291,293,294,295,296,297,298,
299,300,301,302,303,304,305,306,307,
308,309,310,311,312,313,314,315,316,
317,318,319,320,321,322,323,324,325,
326,327,328,329,330,331,332,333,334,
335,336,337,338,339,340,341,342,343,
348,349,351,352,354,355,357,358,360,
361,363,364,366,367,369,370,372,373,
375,376,378,379,381,382,384,385,387,
388,390,391,393,394,
*NSET, NSET=TIP_NODE
73,
*NSET, NSET=AXIS_NODES
1,10,19,28,37,46,55,64,73,
163,172,181,190,199,208,217,226,234,
237,277,280,296,299,302,305,308,311,
314,317,320,323,326,329,332,335,338,
341,
**----------------------------------
** ELEMENTS
**----------------------------------
*ELEMENT, TYPE=CAX4, ELSET=CAX4_ELEMENTS
  1, 10, 11, 2, 1, 
  2, 11, 12, 3, 2, 
  3, 12, 13, 4, 3, 
  4, 13, 14, 5, 4, 
  5, 14, 15, 6, 5, 
  6, 15, 16, 7, 6, 
  7, 16, 17, 8, 7, 
  8, 17, 18, 9, 8, 
  9, 19, 20, 11, 10, 
  10, 20, 21, 12, 11, 
  11, 21, 22, 13, 12, 
  12, 22, 23, 14, 13, 
  13, 23, 24, 15, 14, 
  14, 24, 25, 16, 15, 
  15, 25, 26, 17, 16, 
  16, 26, 27, 18, 17, 
  17, 28, 29, 20, 19, 
  18, 29, 30, 21, 20, 
  19, 30, 31, 22, 21, 
  20, 31, 32, 23, 22, 
** ... 272 like lines cut
**----------------------------------
** ELEMENT SETS
**----------------------------------
*ELSET, ELSET=ALL_ELEMENTS
  1, 2, 3, 4, 5, 6, 7, 8, 9,
 10, 11, 12, 13, 14, 15, 16, 17, 18,
 19, 20, 21, 22, 23, 24, 25, 26, 27,
 28, 29, 30, 31, 32, 33, 34, 35, 36,
 37, 38, 39, 40, 41, 42, 43, 44, 45,
 46, 47, 48, 49, 50, 51, 52, 53, 54,
 55, 56, 57, 58, 59, 60, 61, 62, 63,
 64, 65, 66, 67, 68, 69, 70, 71, 72,
 73, 74, 75, 76, 77, 78, 79, 80, 81,
 82, 83, 84, 85, 86, 87, 88, 89, 90,
 91, 92, 93, 94, 95, 96, 97, 98, 99,
 100, 101, 102, 103, 104, 105, 106, 107, 108,
 109, 110, 111, 112, 113, 114, 115, 116, 117,
 118, 119, 120, 121, 122, 123, 124, 125, 126,
 127, 128, 129, 130, 131, 132, 133, 134, 135,
 136, 137, 138, 139, 140, 141, 142, 143, 144,
 145, 146, 147, 148, 149, 150, 151, 152, 153,
 154, 155, 156, 157, 158, 159, 160, 161, 162,
 163, 164, 165, 166, 167, 168, 169, 170, 171,
 172, 173, 174, 175, 176, 177, 178, 179, 180,
** ... 13 like lines cut
*ELSET, ELSET=SHELL_ELEMENTS
  193, 194, 195, 196, 197, 198, 199, 200, 201,
 202, 203, 204, 205, 206, 207, 208, 209, 210,
 211, 212, 213, 214, 215, 216, 217, 218, 219,
 220, 221, 222, 223, 224, 225, 226, 227, 228,
 229, 230, 231, 232, 233, 234, 235, 236, 237,
 238, 239, 240, 241, 242, 243, 244, 245, 246,
 247, 248, 249, 250, 251, 252, 253, 254, 255,
 256, 257, 258, 259, 260, 261, 262, 263, 264,
 265, 266, 267, 268, 269, 270, 271, 272, 273,
 274, 275, 276, 277, 278, 279, 280, 281, 282,
 283, 284, 285, 286, 287, 288, 289, 290, 291,
 292,
*ELSET, ELSET=CORE_ELEMENTS
  1, 2, 3, 4, 5, 6, 7, 8, 9,
 10, 11, 12, 13, 14, 15, 16, 17, 18,
 19, 20, 21, 22, 23, 24, 25, 26, 27,
 28, 29, 30, 31, 32, 33, 34, 35, 36,
 37, 38, 39, 40, 41, 42, 43, 44, 45,
 46, 47, 48, 49, 50, 51, 52, 53, 54,
 55, 56, 57, 58, 59, 60, 61, 62, 63,
 64, 65, 66, 67, 68, 69, 70, 71, 72,
 73, 74, 75, 76, 77, 78, 79, 80, 81,
 82, 83, 84, 85, 86, 87, 88, 89, 90,
 91, 92, 93, 94, 95, 96, 97, 98, 99,
 100, 101, 102, 103, 104, 105, 106, 107, 108,
 109, 110, 111, 112, 113, 114, 115, 116, 117,
 118, 119, 120, 121, 122, 123, 124, 125, 126,
 127, 128, 129, 130, 131, 132, 133, 134, 135,
 136, 137, 138, 139, 140, 141, 142, 143, 144,
 145, 146, 147, 148, 149, 150, 151, 152, 153,
 154, 155, 156, 157, 158, 159, 160, 161, 162,
 163, 164, 165, 166, 167, 168, 169, 170, 171,
 172, 173, 174, 175, 176, 177, 178, 179, 180,
 181, 182, 183, 184, 185, 186, 187, 188, 189,
 190, 191, 192,
*ELSET, ELSET=SURFACE_ELEMENTS
  64, 128, 59, 124, 126, 63, 61, 122, 57,
 121, 58, 123, 60, 125, 62, 127,
**----------------------------------
** ELEMENT SURFACES
**----------------------------------
*SURFACE, TYPE=ELEMENT, NAME=SURFACE_FACES
 surface_elements, S1
**----------------------------------
** ELEMENT SURFACES
**----------------------------------
*SOLID SECTION, ELSET = ALL_ELEMENTS, MATERIAL = INDENTER_MAT
*RIGID BODY, REF NODE = REF_NODE, PIN NSET=RIGID_NODES
*END PART
**----------------------------------
** ASSEMBLY
**----------------------------------
*ASSEMBLY, NAME = ASSEMBLY
*INSTANCE, NAME = I_SAMPLE, PART = P_SAMPLE
*END INSTANCE
*INSTANCE, NAME = I_INDENTER, PART= P_INDENTER
*END INSTANCE
*END ASSEMBLY
**----------------------------------
** SURFACE INTERACTIONS
**----------------------------------
*SURFACE INTERACTION, NAME = SURF_INT
*FRICTION
0.0,
*SURFACE BEHAVIOR, PRESSURE-OVERCLOSURE = HARD
*CONTACT PAIR, INTERACTION = SURF_INT, SUPPLEMENTARY CONSTRAINTS = NO
I_SAMPLE.SURFACE_FACES, I_INDENTER.SURFACE_FACES
**----------------------------------
** MATERIALS
**----------------------------------
** SAMPLE MATERIAL
** <VonMises instance: 1 samples>
*MATERIAL, NAME=SAMPLE_MAT
*ELASTIC
  1.0, 0.3
*PLASTIC
  0.01, 0.
** INDENTER MATERIAL
** <Elastic instance: 1 samples>
*MATERIAL, NAME=INDENTER_MAT
*ELASTIC
  1.0, 0.3
**----------------------------------
** STEPS
**----------------------------------
*STEP, NAME = PRELOADING, NLGEOM = YES, INC=1000000
*STATIC, DIRECT
0.02, 1.
*BOUNDARY
I_SAMPLE.AXIS_NODES, 1, 1
I_SAMPLE.BOTTOM_NODES, 1, 3
I_INDENTER.XSYM_NODES, 1, 1
I_INDENTER.REF_NODE, 2, 2, -0.166758329628
*RESTART, WRITE, FREQUENCY = 0
*OUTPUT, FIELD, FREQUENCY = 999999
*NODE OUTPUT
COORD, U, 
*NODE OUTPUT, NSET=I_INDENTER.REF_NODE
U
*ELEMENT OUTPUT, ELSET=I_SAMPLE.ALL_ELEMENTS, DIRECTIONS = YES, POSITION=NODES
LE, EE, PE, PEEQ, S, 
*ELEMENT OUTPUT, ELSET=I_INDENTER.ALL_ELEMENTS, DIRECTIONS = YES, POSITION=NODES
LE, EE, PE, PEEQ, S, 
*OUTPUT, HISTORY
*ENERGY OUTPUT
ALLFD, ALLWK
*ENERGY OUTPUT, ELSET=I_SAMPLE.ALL_ELEMENTS
ALLPD
*ENERGY OUTPUT, ELSET=I_SAMPLE.ALL_ELEMENTS
ALLSE
*ENERGY OUTPUT, ELSET=I_INDENTER.ALL_ELEMENTS
ALLSE
*CONTACT OUTPUT, NSET=I_SAMPLE.TOP_NODES
CPRESS
*NODE OUTPUT, NSET=I_INDENTER.REF_NODE
U2
*NODE OUTPUT, NSET=I_INDENTER.TIP_NODE
U2
*NODE OUTPUT, NSET=I_INDENTER.REF_NODE
RF2
*NODE OUTPUT, NSET = I_SAMPLE.TOP_NODES
COOR1, COOR2, COOR3
*END STEP
*STEP, NAME = LOADING, NLGEOM = YES, INC=1000000
*STATIC, DIRECT
0.02, 1.
*BOUNDARY
I_SAMPLE.AXIS_NODES, 1, 1
I_SAMPLE.BOTTOM_NODES, 1, 3
I_INDENTER.XSYM_NODES, 1, 1
I_INDENTER.REF_NODE, 2, 2, -0.333516659255
*RESTART, WRITE, FREQUENCY = 0
*OUTPUT, FIELD, FREQUENCY = 999999
*NODE OUTPUT
COORD, U, 
*NODE OUTPUT, NSET=I_INDENTER.REF_NODE
U
*ELEMENT OUTPUT, ELSET=I_SAMPLE.ALL_ELEMENTS, DIRECTIONS = YES, POSITION=NODES
LE, EE, PE, PEEQ, S, 
*ELEMENT OUTPUT, ELSET=I_INDENTER.ALL_ELEMENTS, DIRECTIONS = YES, POSITION=NODES
LE, EE, PE, PEEQ, S, 
*OUTPUT, HISTORY
*ENERGY OUTPUT
ALLFD, ALLWK
*ENERGY OUTPUT, ELSET=I_SAMPLE.ALL_ELEMENTS
ALLPD
*ENERGY OUTPUT, ELSET=I_SAMPLE.ALL_ELEMENTS
ALLSE
*ENERGY OUTPUT, ELSET=I_INDENTER.ALL_ELEMENTS
ALLSE
*CONTACT OUTPUT, NSET=I_SAMPLE.TOP_NODES
CPRESS
*NODE OUTPUT, NSET=I_INDENTER.REF_NODE
U2
*NODE OUTPUT, NSET=I_INDENTER.TIP_NODE
U2
*NODE OUTPUT, NSET=I_INDENTER.REF_NODE
RF2
*NODE OUTPUT, NSET = I_SAMPLE.TOP_NODES
COOR1, COOR2, COOR3
*END STEP
*STEP, NAME = UNLOADING, NLGEOM = YES, INC=1000000
*STATIC, DIRECT
0.02, 1.
*BOUNDARY
I_SAMPLE.AXIS_NODES, 1, 1
I_SAMPLE.BOTTOM_NODES, 1, 3
I_INDENTER.XSYM_NODES, 1, 1
I_INDENTER.REF_NODE, 2, 2, -0.0
*RESTART, WRITE, FREQUENCY = 0
*OUTPUT, FIELD, FREQUENCY = 999999
*NODE OUTPUT
COORD, U, 
*NODE OUTPUT, NSET=I_INDENTER.REF_NODE
U
*ELEMENT OUTPUT, ELSET=I_SAMPLE.ALL_ELEMENTS, DIRECTIONS = YES, POSITION=NODES
LE, EE, PE, PEEQ, S, 
*ELEMENT OUTPUT, ELSET=I_INDENTER.ALL_ELEMENTS, DIRECTIONS = YES, POSITION=NODES
LE, EE, PE, PEEQ, S, 
*OUTPUT, HISTORY
*ENERGY OUTPUT
ALLFD, ALLWK
*ENERGY OUTPUT, ELSET=I_SAMPLE.ALL_ELEMENTS
ALLPD
*ENERGY OUTPUT, ELSET=I_SAMPLE.ALL_ELEMENTS
ALLSE
*ENERGY OUTPUT, ELSET=I_INDENTER.ALL_ELEMENTS
ALLSE
*CONTACT OUTPUT, NSET=I_SAMPLE.TOP_NODES
CPRESS
*NODE OUTPUT, NSET=I_INDENTER.REF_NODE
U2
*NODE OUTPUT, NSET=I_INDENTER.TIP_NODE
U2
*NODE OUTPUT, NSET=I_INDENTER.REF_NODE
RF2
*NODE OUTPUT, NSET = I_SAMPLE.TOP_NODES
COOR1, COOR2, COOR3
*END STEP
