**----------------------------------
**INDENTATION SIMULATION
**----------------------------------
*HEADING
Abapy Indentation Simulation
*PREPRINT, ECHO=NO, MODEL=NO, HISTORY=NO, CONTACT=NO
**----------------------------------
** SAMPLE DEFINITION
*PART, NAME = P_SAMPLE
**----------------------------------
** NODES
**----------------------------------
*Node, NSET=ALLNODES
  1, 0.0, -1.0, 0.0
  2, 0.125, -1.0, 0.0
  3, 0.25, -1.0, 0.0
  4, 0.375, -1.0, 0.0
  5, 0.5, -1.0, 0.0
  6, 0.625, -1.0, 0.0
  7, 0.75, -1.0, 0.0
  8, 0.875, -1.0, 0.0
  9, 1.0, -1.0, 0.0
  10, 0.0, -0.875, 0.0
  11, 0.125, -0.875, 0.0
  12, 0.25, -0.875, 0.0
  13, 0.375, -0.875, 0.0
  14, 0.5, -0.875, 0.0
  15, 0.625, -0.875, 0.0
  16, 0.75, -0.875, 0.0
  17, 0.875, -0.875, 0.0
  18, 1.0, -0.875, 0.0
  19, 0.0, -0.75, 0.0
  20, 0.125, -0.75, 0.0
** ... 2367 like lines cut
**----------------------------------
** NODE SETS
**----------------------------------
*NSET, NSET=CORE_NODES
1,2,3,4,5,6,7,8,9,
10,11,12,13,14,15,16,17,18,
19,20,21,22,23,24,25,26,27,
28,29,30,31,32,33,34,35,36,
37,38,39,40,41,42,43,44,45,
46,47,48,49,50,51,52,53,54,
55,56,57,58,59,60,61,62,63,
64,65,66,67,68,69,70,71,72,
73,74,75,76,77,78,79,80,81,
83,84,85,86,87,88,89,90,92,
93,94,95,96,97,98,99,101,102,
103,104,105,106,107,108,110,111,112,
113,114,115,116,117,119,120,121,122,
123,124,125,126,128,129,130,131,132,
133,134,135,137,138,139,140,141,142,
143,144,146,147,148,149,150,151,152,
153,155,156,157,158,159,160,161,162,
163,164,165,166,167,168,169,170,172,
173,174,175,176,177,178,179,181,182,
183,184,185,186,187,188,190,191,192,
** ... 182 like lines cut
*NSET, NSET=ALL_BACK_NODES
2770,2771,2772,2773,2774,2775,2776,2777,2779,
2780,2781,2782,2783,2784,2785,2786,2788,2789,
2790,2791,2792,2793,2794,2795,2797,2798,2799,
2800,2801,2802,2803,2804,2806,2807,2808,2809,
2810,2811,2812,2813,2815,2816,2817,2818,2819,
2820,2821,2822,2824,2825,2826,2827,2828,2829,
2830,2831,2833,2834,2835,2836,2837,2838,2839,
2840,2842,2843,2844,2845,2846,2847,2848,2849,
2851,2852,2853,2854,2855,2856,2857,2858,2860,
2861,2862,2863,2864,2865,2866,2867,2869,2870,
2871,2872,2873,2874,2875,2876,2878,2879,2880,
2881,2882,2883,2884,2885,2887,2888,2889,2890,
2891,2892,2893,2894,2896,2897,2898,2899,2900,
2901,2902,2903,2905,2906,2907,2908,2909,2910,
2911,2912,2914,2915,2916,2917,2918,2919,2920,
2921,2923,2924,2925,2926,2927,2928,2929,2930,
2932,2933,2934,2935,2936,2937,2938,2941,2942,
2943,2944,2945,2946,2947,2950,2951,2952,2953,
2954,2955,2956,2959,2960,2961,2962,2963,2964,
2965,2968,2969,2970,2971,2972,2973,2974,2977,
** ... 10 like lines cut
*NSET, NSET=ALL_NODES
1,2,3,4,5,6,7,8,9,
10,11,12,13,14,15,16,17,18,
19,20,21,22,23,24,25,26,27,
28,29,30,31,32,33,34,35,36,
37,38,39,40,41,42,43,44,45,
46,47,48,49,50,51,52,53,54,
55,56,57,58,59,60,61,62,63,
64,65,66,67,68,69,70,71,72,
73,74,75,76,77,78,79,80,81,
83,84,85,86,87,88,89,90,92,
93,94,95,96,97,98,99,101,102,
103,104,105,106,107,108,110,111,112,
113,114,115,116,117,119,120,121,122,
123,124,125,126,128,129,130,131,132,
133,134,135,137,138,139,140,141,142,
143,144,146,147,148,149,150,151,152,
153,155,156,157,158,159,160,161,162,
163,164,165,166,167,168,169,170,172,
173,174,175,176,177,178,179,181,182,
183,184,185,186,187,188,190,191,192,
** ... 246 like lines cut
*NSET, NSET=ALL_FRONT_NODES
2,3,4,5,6,7,8,9,11,
12,13,14,15,16,17,18,20,21,
22,23,24,25,26,27,29,30,31,
32,33,34,35,36,38,39,40,41,
42,43,44,45,47,48,49,50,51,
52,53,54,56,57,58,59,60,61,
62,63,65,66,67,68,69,70,71,
72,74,75,76,77,78,79,80,81,
83,84,85,86,87,88,89,90,92,
93,94,95,96,97,98,99,101,102,
103,104,105,106,107,108,110,111,112,
113,114,115,116,117,119,120,121,122,
123,124,125,126,128,129,130,131,132,
133,134,135,137,138,139,140,141,142,
143,144,146,147,148,149,150,151,152,
153,155,156,157,158,159,160,161,162,
164,165,166,167,168,169,170,173,174,
175,176,177,178,179,182,183,184,185,
186,187,188,191,192,193,194,195,196,
197,200,201,202,203,204,205,206,209,
** ... 10 like lines cut
*NSET, NSET=REF_NODE
296,
*NSET, NSET=BOTTOM_NODES
296,297,298,324,325,643,644,670,671,
989,990,1016,1017,1335,1336,1362,1363,1681,
1682,1708,1709,2027,2028,2054,2055,2373,2374,
2400,2401,2719,2720,2746,2747,3065,3066,3092,
3093,
*NSET, NSET=BACK_NODES
2770,2771,2772,2773,2774,2775,2776,2777,2779,
2780,2781,2782,2783,2784,2785,2786,2788,2789,
2790,2791,2792,2793,2794,2795,2797,2798,2799,
2800,2801,2802,2803,2804,2806,2807,2808,2809,
2810,2811,2812,2813,2815,2816,2817,2818,2819,
2820,2821,2822,2824,2825,2826,2827,2828,2829,
2830,2831,2833,2834,2835,2836,2837,2838,2839,
2840,2842,2843,2844,2845,2846,2847,2848,2849,
2851,2852,2853,2854,2855,2856,2857,2858,2860,
2861,2862,2863,2864,2865,2866,2867,2869,2870,
2871,2872,2873,2874,2875,2876,2878,2879,2880,
2881,2882,2883,2884,2885,2887,2888,2889,2890,
2891,2892,2893,2894,2896,2897,2898,2899,2900,
2901,2902,2903,2905,2906,2907,2908,2909,2910,
2911,2912,2914,2915,2916,2917,2918,2919,2920,
2921,2923,2924,2925,2926,2927,2928,2929,2930,
2932,2933,2934,2935,2936,2937,2938,2941,2942,
2943,2944,2945,2946,2947,2950,2951,2952,2953,
2954,2955,2956,2959,2960,2961,2962,2963,2964,
2965,2968,2969,2970,2971,2972,2973,2974,2977,
** ... 9 like lines cut
*NSET, NSET=TOP_NODES
73,74,75,76,77,78,79,80,81,
155,156,157,158,159,160,161,162,420,
421,422,423,424,425,426,427,501,502,
503,504,505,506,507,508,766,767,768,
769,770,771,772,773,847,848,849,850,
851,852,853,854,1112,1113,1114,1115,1116,
1117,1118,1119,1193,1194,1195,1196,1197,1198,
1199,1200,1458,1459,1460,1461,1462,1463,1464,
1465,1539,1540,1541,1542,1543,1544,1545,1546,
1804,1805,1806,1807,1808,1809,1810,1811,1885,
1886,1887,1888,1889,1890,1891,1892,2150,2151,
2152,2153,2154,2155,2156,2157,2231,2232,2233,
2234,2235,2236,2237,2238,2496,2497,2498,2499,
2500,2501,2502,2503,2577,2578,2579,2580,2581,
2582,2583,2584,2842,2843,2844,2845,2846,2847,
2848,2849,2923,2924,2925,2926,2927,2928,2929,
2930,
*NSET, NSET=SURFACE_NODES
73,74,75,76,77,78,79,80,81,
155,156,157,158,159,160,161,162,420,
421,422,423,424,425,426,427,501,502,
503,504,505,506,507,508,766,767,768,
769,770,771,772,773,847,848,849,850,
851,852,853,854,1112,1113,1114,1115,1116,
1117,1118,1119,1193,1194,1195,1196,1197,1198,
1199,1200,1458,1459,1460,1461,1462,1463,1464,
1465,1539,1540,1541,1542,1543,1544,1545,1546,
1804,1805,1806,1807,1808,1809,1810,1811,1885,
1886,1887,1888,1889,1890,1891,1892,2150,2151,
2152,2153,2154,2155,2156,2157,2231,2232,2233,
2234,2235,2236,2237,2238,2496,2497,2498,2499,
2500,2501,2502,2503,2577,2578,2579,2580,2581,
2582,2583,2584,2842,2843,2844,2845,2846,2847,
2848,2849,2923,2924,2925,2926,2927,2928,2929,
2930,
*NSET, NSET=AXIS_NODES
1,10,19,28,37,46,55,64,73,
163,172,181,190,199,208,217,226,234,
237,277,280,296,299,302,305,308,311,
314,317,
*NSET, NSET=FRONT_NODES
2,3,4,5,6,7,8,9,11,
12,13,14,15,16,17,18,20,21,
22,23,24,25,26,27,29,30,31,
32,33,34,35,36,38,39,40,41,
42,43,44,45,47,48,49,50,51,
52,53,54,56,57,58,59,60,61,
62,63,65,66,67,68,69,70,71,
72,74,75,76,77,78,79,80,81,
83,84,85,86,87,88,89,90,92,
93,94,95,96,97,98,99,101,102,
103,104,105,106,107,108,110,111,112,
113,114,115,116,117,119,120,121,122,
123,124,125,126,128,129,130,131,132,
133,134,135,137,138,139,140,141,142,
143,144,146,147,148,149,150,151,152,
153,155,156,157,158,159,160,161,162,
164,165,166,167,168,169,170,173,174,
175,176,177,178,179,182,183,184,185,
186,187,188,191,192,193,194,195,196,
197,200,201,202,203,204,205,206,209,
** ... 9 like lines cut
*NSET, NSET=TIP_NODE
73,
*NSET, NSET=SHELL_NODES
234,235,236,237,238,239,240,247,248,
250,251,252,259,260,262,263,264,271,
272,274,275,276,90,99,108,117,126,
135,144,153,162,163,164,165,166,167,
168,169,170,277,278,279,280,281,282,
283,290,291,293,294,295,296,297,298,
299,300,301,302,303,304,305,306,307,
308,309,310,311,312,313,314,315,316,
317,318,319,324,325,327,328,330,331,
333,334,336,337,339,340,342,343,345,
346,581,582,584,585,586,593,594,596,
597,598,605,606,608,609,610,617,618,
620,621,622,436,445,454,463,472,481,
490,499,508,510,511,512,513,514,515,
516,624,625,627,628,629,636,637,639,
640,641,643,644,646,647,649,650,652,
653,655,656,658,659,661,662,664,665,
670,671,673,674,676,677,679,680,682,
683,685,686,688,689,691,692,927,928,
930,931,932,939,940,942,943,944,951,
** ... 60 like lines cut
**----------------------------------
** ELEMENTS
**----------------------------------
*ELEMENT, TYPE=C3D8, ELSET=C3D8_ELEMENTS
  2, 348, 349, 358, 357, 2, 3, 12, 11, 
  3, 349, 350, 359, 358, 3, 4, 13, 12, 
  4, 350, 351, 360, 359, 4, 5, 14, 13, 
  5, 351, 352, 361, 360, 5, 6, 15, 14, 
  6, 352, 353, 362, 361, 6, 7, 16, 15, 
  7, 353, 354, 363, 362, 7, 8, 17, 16, 
  8, 354, 355, 364, 363, 8, 9, 18, 17, 
  10, 357, 358, 367, 366, 11, 12, 21, 20, 
  11, 358, 359, 368, 367, 12, 13, 22, 21, 
  12, 359, 360, 369, 368, 13, 14, 23, 22, 
  13, 360, 361, 370, 369, 14, 15, 24, 23, 
  14, 361, 362, 371, 370, 15, 16, 25, 24, 
  15, 362, 363, 372, 371, 16, 17, 26, 25, 
  16, 363, 364, 373, 372, 17, 18, 27, 26, 
  18, 366, 367, 376, 375, 20, 21, 30, 29, 
  19, 367, 368, 377, 376, 21, 22, 31, 30, 
  20, 368, 369, 378, 377, 22, 23, 32, 31, 
  21, 369, 370, 379, 378, 23, 24, 33, 32, 
  22, 370, 371, 380, 379, 24, 25, 34, 33, 
  23, 371, 372, 381, 380, 25, 26, 35, 34, 
** ... 1836 like lines cut
*ELEMENT, TYPE=C3D6, ELSET=C3D6_ELEMENTS
  1, 1, 2, 348, 10, 11, 357, 
  9, 10, 11, 357, 19, 20, 366, 
  17, 19, 20, 366, 28, 29, 375, 
  25, 28, 29, 375, 37, 38, 384, 
  33, 37, 38, 384, 46, 47, 393, 
  41, 46, 47, 393, 55, 56, 402, 
  49, 55, 56, 402, 64, 65, 411, 
  57, 64, 65, 411, 73, 74, 420, 
  129, 163, 164, 510, 172, 173, 519, 
  137, 172, 173, 519, 181, 182, 528, 
  145, 181, 182, 528, 190, 191, 537, 
  153, 190, 191, 537, 199, 200, 546, 
  161, 199, 200, 546, 208, 209, 555, 
  169, 208, 209, 555, 217, 218, 564, 
  177, 217, 218, 564, 226, 227, 573, 
  185, 226, 227, 573, 1, 2, 348, 
  193, 234, 235, 581, 237, 238, 584, 
  197, 237, 238, 584, 163, 164, 510, 
  217, 277, 278, 624, 280, 281, 627, 
  221, 280, 281, 627, 234, 235, 581, 
** ... 204 like lines cut
**----------------------------------
** ELEMENT SETS
**----------------------------------
*ELSET, ELSET=SURFACE_ELEMENTS
  57, 58, 59, 60, 61, 62, 63, 64, 577,
 578, 579, 580, 581, 582, 583, 584, 1097, 1098,
 1099, 1100, 1101, 1102, 1103, 1104, 1617, 1618, 1619,
 1620, 1621, 1622, 1623, 1624, 121, 122, 123, 124,
 125, 126, 127, 128, 641, 642, 643, 644, 645,
 646, 647, 648, 1161, 1162, 1163, 1164, 1165, 1166,
 1167, 1168, 1681, 1682, 1683, 1684, 1685, 1686, 1687,
 1688, 317, 318, 319, 320, 321, 322, 323, 324,
 837, 838, 839, 840, 841, 842, 843, 844, 1357,
 1358, 1359, 1360, 1361, 1362, 1363, 1364, 1877, 1878,
 1879, 1880, 1881, 1882, 1883, 1884, 381, 382, 383,
 384, 385, 386, 387, 388, 901, 902, 903, 904,
 905, 906, 907, 908, 1421, 1422, 1423, 1424, 1425,
 1426, 1427, 1428, 1941, 1942, 1943, 1944, 1945, 1946,
 1947, 1948,
*ELSET, ELSET=SURFACE_FACES_F5_0
  58, 59, 60, 61, 62, 63, 64, 578, 579,
 580, 581, 582, 583, 584, 1098, 1099, 1100, 1101,
 1102, 1103, 1104, 1618, 1619, 1620, 1621, 1622, 1623,
 1624, 121, 122, 123, 124, 125, 126, 127, 128,
 641, 642, 643, 644, 645, 646, 647, 648, 1161,
 1162, 1163, 1164, 1165, 1166, 1167, 1168, 1681, 1682,
 1683, 1684, 1685, 1686, 1687, 1688, 318, 319, 320,
 321, 322, 323, 324, 838, 839, 840, 841, 842,
 843, 844, 1358, 1359, 1360, 1361, 1362, 1363, 1364,
 1878, 1879, 1880, 1881, 1882, 1883, 1884, 381, 382,
 383, 384, 385, 386, 387, 388, 901, 902, 903,
 904, 905, 906, 907, 908, 1421, 1422, 1423, 1424,
 1425, 1426, 1427, 1428, 1941, 1942, 1943, 1944, 1945,
 1946, 1947, 1948,
*ELSET, ELSET=ALL_ELEMENTS
  1, 2, 3, 4, 5, 6, 7, 8, 9,
 10, 11, 12, 13, 14, 15, 16, 17, 18,
 19, 20, 21, 22, 23, 24, 25, 26, 27,
 28, 29, 30, 31, 32, 33, 34, 35, 36,
 37, 38, 39, 40, 41, 42, 43, 44, 45,
 46, 47, 48, 49, 50, 51, 52, 53, 54,
 55, 56, 57, 58, 59, 60, 61, 62, 63,
 64, 65, 66, 67, 68, 69, 70, 71, 72,
 73, 74, 75, 76, 77, 78, 79, 80, 81,
 82, 83, 84, 85, 86, 87, 88, 89, 90,
 91, 92, 93, 94, 95, 96, 97, 98, 99,
 100, 101, 102, 103, 104, 105, 106, 107, 108,
 109, 110, 111, 112, 113, 114, 115, 116, 117,
 118, 119, 120, 121, 122, 123, 124, 125, 126,
 127, 128, 129, 130, 131, 132, 133, 134, 135,
 136, 137, 138, 139, 140, 141, 142, 143, 144,
 145, 146, 147, 148, 149, 150, 151, 152, 153,
 154, 155, 156, 157, 158, 159, 160, 161, 162,
 163, 164, 165, 166, 167, 168, 169, 170, 171,
 172, 173, 174, 175, 176, 177, 178, 179, 180,
** ... 212 like lines cut
*ELSET, ELSET=SHELL_ELEMENTS
  2048, 2049, 2050, 2051, 2052, 2053, 2054, 2055, 2056,
 2057, 2058, 2059, 2060, 2061, 2062, 2063, 2064, 2065,
 2066, 2067, 2068, 2069, 2070, 2071, 2072, 2073, 2074,
 2075, 2076, 2077, 2078, 2079, 2080, 193, 194, 195,
 196, 197, 198, 199, 200, 201, 202, 203, 204,
 205, 206, 207, 208, 209, 210, 211, 212, 213,
 214, 215, 216, 217, 218, 219, 220, 221, 222,
 223, 224, 225, 226, 227, 228, 229, 230, 231,
 232, 233, 234, 235, 236, 237, 238, 239, 240,
 241, 242, 243, 244, 245, 246, 247, 248, 249,
 250, 251, 252, 253, 254, 255, 256, 257, 258,
 259, 260, 453, 454, 455, 456, 457, 458, 459,
 460, 461, 462, 463, 464, 465, 466, 467, 468,
 469, 470, 471, 472, 473, 474, 475, 476, 477,
 478, 479, 480, 481, 482, 483, 484, 485, 486,
 487, 488, 489, 490, 491, 492, 493, 494, 495,
 496, 497, 498, 499, 500, 501, 502, 503, 504,
 505, 506, 507, 508, 509, 510, 511, 512, 513,
 514, 515, 516, 517, 518, 519, 520, 713, 714,
 715, 716, 717, 718, 719, 720, 721, 722, 723,
** ... 41 like lines cut
*ELSET, ELSET=CORE_ELEMENTS
  1, 2, 3, 4, 5, 6, 7, 8, 9,
 10, 11, 12, 13, 14, 15, 16, 17, 18,
 19, 20, 21, 22, 23, 24, 25, 26, 27,
 28, 29, 30, 31, 32, 33, 34, 35, 36,
 37, 38, 39, 40, 41, 42, 43, 44, 45,
 46, 47, 48, 49, 50, 51, 52, 53, 54,
 55, 56, 57, 58, 59, 60, 61, 62, 63,
 64, 65, 66, 67, 68, 69, 70, 71, 72,
 73, 74, 75, 76, 77, 78, 79, 80, 81,
 82, 83, 84, 85, 86, 87, 88, 89, 90,
 91, 92, 93, 94, 95, 96, 97, 98, 99,
 100, 101, 102, 103, 104, 105, 106, 107, 108,
 109, 110, 111, 112, 113, 114, 115, 116, 117,
 118, 119, 120, 121, 122, 123, 124, 125, 126,
 127, 128, 129, 130, 131, 132, 133, 134, 135,
 136, 137, 138, 139, 140, 141, 142, 143, 144,
 145, 146, 147, 148, 149, 150, 151, 152, 153,
 154, 155, 156, 157, 158, 159, 160, 161, 162,
 163, 164, 165, 166, 167, 168, 169, 170, 171,
 172, 173, 174, 175, 176, 177, 178, 179, 180,
** ... 151 like lines cut
*ELSET, ELSET=SURFACE_FACES_F2_0
  577, 837, 1097, 1357, 1617, 1877, 57, 317,
**----------------------------------
** ELEMENT SURFACES
**----------------------------------
*SURFACE, TYPE=ELEMENT, NAME=SURFACE_FACES
 surface_faces_f2_0, S2
 surface_faces_f5_0, S5
*SOLID SECTION, ELSET = ALL_ELEMENTS, MATERIAL = SAMPLE_MAT
*TRANSFORM, TYPE=C, NSET=FRONT_NODES
0., 0., 0., 0., 1.,0.
*TRANSFORM, TYPE=C, NSET=BACK_NODES
0., 0., 0., 0., 1.,0.
*END PART
**----------------------------------
** INDENTER DEFINITION
**----------------------------------
*PART, NAME = P_INDENTER
**----------------------------------
** NODES
**----------------------------------
*Node, NSET=ALLNODES
  1, 0.0, 1.0, 0.0
  2, 0.0907636880875, 1.00368666649, 0.0
  3, 0.182169944048, 1.01455116272, 0.0
  4, 0.274756669998, 1.03205311298, 0.0
  5, 0.368892073631, 1.05542349815, 0.0
  6, 0.464763432741, 1.08379888535, 0.0
  7, 0.562406182289, 1.11633300781, 0.0
  8, 0.66175031662, 1.15226364136, 0.0
  9, 0.762664616108, 1.19094192982, 0.0
  10, 0.0, 0.875, 0.0
  11, 0.0907972529531, 0.879207491875, 0.0
  12, 0.182422846556, 0.891541898251, 0.0
  13, 0.275533914566, 0.911225020885, 0.0
  14, 0.370525687933, 0.937195658684, 0.0
  15, 0.467538833618, 0.96832716465, 0.0
  16, 0.566526293755, 1.00358009338, 0.0
  17, 0.667331516743, 1.04207420349, 0.0
  18, 0.76975029707, 1.08310186863, 0.0
  19, 0.0, 0.75, 0.0
  20, 0.0908486098051, 0.754898369312, 0.0
** ... 2367 like lines cut
**----------------------------------
** NODE SETS
**----------------------------------
*NSET, NSET=CORE_NODES
1,2,3,4,5,6,7,8,9,
10,11,12,13,14,15,16,17,18,
19,20,21,22,23,24,25,26,27,
28,29,30,31,32,33,34,35,36,
37,38,39,40,41,42,43,44,45,
46,47,48,49,50,51,52,53,54,
55,56,57,58,59,60,61,62,63,
64,65,66,67,68,69,70,71,72,
73,74,75,76,77,78,79,80,81,
83,84,85,86,87,88,89,90,92,
93,94,95,96,97,98,99,101,102,
103,104,105,106,107,108,110,111,112,
113,114,115,116,117,119,120,121,122,
123,124,125,126,128,129,130,131,132,
133,134,135,137,138,139,140,141,142,
143,144,146,147,148,149,150,151,152,
153,155,156,157,158,159,160,161,162,
163,164,165,166,167,168,169,170,172,
173,174,175,176,177,178,179,181,182,
183,184,185,186,187,188,190,191,192,
** ... 182 like lines cut
*NSET, NSET=ALL_BACK_NODES
2770,2771,2772,2773,2774,2775,2776,2777,2779,
2780,2781,2782,2783,2784,2785,2786,2788,2789,
2790,2791,2792,2793,2794,2795,2797,2798,2799,
2800,2801,2802,2803,2804,2806,2807,2808,2809,
2810,2811,2812,2813,2815,2816,2817,2818,2819,
2820,2821,2822,2824,2825,2826,2827,2828,2829,
2830,2831,2833,2834,2835,2836,2837,2838,2839,
2840,2842,2843,2844,2845,2846,2847,2848,2849,
2851,2852,2853,2854,2855,2856,2857,2858,2860,
2861,2862,2863,2864,2865,2866,2867,2869,2870,
2871,2872,2873,2874,2875,2876,2878,2879,2880,
2881,2882,2883,2884,2885,2887,2888,2889,2890,
2891,2892,2893,2894,2896,2897,2898,2899,2900,
2901,2902,2903,2905,2906,2907,2908,2909,2910,
2911,2912,2914,2915,2916,2917,2918,2919,2920,
2921,2923,2924,2925,2926,2927,2928,2929,2930,
2932,2933,2934,2935,2936,2937,2938,2941,2942,
2943,2944,2945,2946,2947,2950,2951,2952,2953,
2954,2955,2956,2959,2960,2961,2962,2963,2964,
2965,2968,2969,2970,2971,2972,2973,2974,2977,
** ... 10 like lines cut
*NSET, NSET=ALL_NODES
1,2,3,4,5,6,7,8,9,
10,11,12,13,14,15,16,17,18,
19,20,21,22,23,24,25,26,27,
28,29,30,31,32,33,34,35,36,
37,38,39,40,41,42,43,44,45,
46,47,48,49,50,51,52,53,54,
55,56,57,58,59,60,61,62,63,
64,65,66,67,68,69,70,71,72,
73,74,75,76,77,78,79,80,81,
83,84,85,86,87,88,89,90,92,
93,94,95,96,97,98,99,101,102,
103,104,105,106,107,108,110,111,112,
113,114,115,116,117,119,120,121,122,
123,124,125,126,128,129,130,131,132,
133,134,135,137,138,139,140,141,142,
143,144,146,147,148,149,150,151,152,
153,155,156,157,158,159,160,161,162,
163,164,165,166,167,168,169,170,172,
173,174,175,176,177,178,179,181,182,
183,184,185,186,187,188,190,191,192,
** ... 246 like lines cut
*NSET, NSET=ALL_FRONT_NODES
2,3,4,5,6,7,8,9,11,
12,13,14,15,16,17,18,20,21,
22,23,24,25,26,27,29,30,31,
32,33,34,35,36,38,39,40,41,
42,43,44,45,47,48,49,50,51,
52,53,54,56,57,58,59,60,61,
62,63,65,66,67,68,69,70,71,
72,74,75,76,77,78,79,80,81,
83,84,85,86,87,88,89,90,92,
93,94,95,96,97,98,99,101,102,
103,104,105,106,107,108,110,111,112,
113,114,115,116,117,119,120,121,122,
123,124,125,126,128,129,130,131,132,
133,134,135,137,138,139,140,141,142,
143,144,146,147,148,149,150,151,152,
153,155,156,157,158,159,160,161,162,
164,165,166,167,168,169,170,173,174,
175,176,177,178,179,182,183,184,185,
186,187,188,191,192,193,194,195,196,
197,200,201,202,203,204,205,206,209,
** ... 10 like lines cut
*NSET, NSET=REF_NODE
296,
*NSET, NSET=BOTTOM_NODES
296,297,298,324,325,643,644,670,671,
989,990,1016,1017,1335,1336,1362,1363,1681,
1682,1708,1709,2027,2028,2054,2055,2373,2374,
2400,2401,2719,2720,2746,2747,3065,3066,3092,
3093,
*NSET, NSET=BACK_NODES
2770,2771,2772,2773,2774,2775,2776,2777,2779,
2780,2781,2782,2783,2784,2785,2786,2788,2789,
2790,2791,2792,2793,2794,2795,2797,2798,2799,
2800,2801,2802,2803,2804,2806,2807,2808,2809,
2810,2811,2812,2813,2815,2816,2817,2818,2819,
2820,2821,2822,2824,2825,2826,2827,2828,2829,
2830,2831,2833,2834,2835,2836,2837,2838,2839,
2840,2842,2843,2844,2845,2846,2847,2848,2849,
2851,2852,2853,2854,2855,2856,2857,2858,2860,
2861,2862,2863,2864,2865,2866,2867,2869,2870,
2871,2872,2873,2874,2875,2876,2878,2879,2880,
2881,2882,2883,2884,2885,2887,2888,2889,2890,
2891,2892,2893,2894,2896,2897,2898,2899,2900,
2901,2902,2903,2905,2906,2907,2908,2909,2910,
2911,2912,2914,2915,2916,2917,2918,2919,2920,
2921,2923,2924,2925,2926,2927,2928,2929,2930,
2932,2933,2934,2935,2936,2937,2938,2941,2942,
2943,2944,2945,2946,2947,2950,2951,2952,2953,
2954,2955,2956,2959,2960,2961,2962,2963,2964,
2965,2968,2969,2970,2971,2972,2973,2974,2977,
** ... 9 like lines cut
*NSET, NSET=TOP_NODES
73,74,75,76,77,78,79,80,81,
155,156,157,158,159,160,161,162,420,
421,422,423,424,425,426,427,501,502,
503,504,505,506,507,508,766,767,768,
769,770,771,772,773,847,848,849,850,
851,852,853,854,1112,1113,1114,1115,1116,
1117,1118,1119,1193,1194,1195,1196,1197,1198,
1199,1200,1458,1459,1460,1461,1462,1463,1464,
1465,1539,1540,1541,1542,1543,1544,1545,1546,
1804,1805,1806,1807,1808,1809,1810,1811,1885,
1886,1887,1888,1889,1890,1891,1892,2150,2151,
2152,2153,2154,2155,2156,2157,2231,2232,2233,
2234,2235,2236,2237,2238,2496,2497,2498,2499,
2500,2501,2502,2503,2577,2578,2579,2580,2581,
2582,2583,2584,2842,2843,2844,2845,2846,2847,
2848,2849,2923,2924,2925,2926,2927,2928,2929,
2930,
*NSET, NSET=XSYM_NODES
296,
*NSET, NSET=SURFACE_NODES
73,74,75,76,77,78,79,80,81,
155,156,157,158,159,160,161,162,420,
421,422,423,424,425,426,427,501,502,
503,504,505,506,507,508,766,767,768,
769,770,771,772,773,847,848,849,850,
851,852,853,854,1112,1113,1114,1115,1116,
1117,1118,1119,1193,1194,1195,1196,1197,1198,
1199,1200,1458,1459,1460,1461,1462,1463,1464,
1465,1539,1540,1541,1542,1543,1544,1545,1546,
1804,1805,1806,1807,1808,1809,1810,1811,1885,
1886,1887,1888,1889,1890,1891,1892,2150,2151,
2152,2153,2154,2155,2156,2157,2231,2232,2233,
2234,2235,2236,2237,2238,2496,2497,2498,2499,
2500,2501,2502,2503,2577,2578,2579,2580,2581,
2582,2583,2584,2842,2843,2844,2845,2846,2847,
2848,2849,2923,2924,2925,2926,2927,2928,2929,
2930,
*NSET, NSET=RIGID_NODES
1,2,3,4,5,6,7,8,9,
10,11,12,13,14,15,16,17,18,
19,20,21,22,23,24,25,26,27,
28,29,30,31,32,33,34,35,36,
37,38,39,40,41,42,43,44,45,
46,47,48,49,50,51,52,53,54,
55,56,57,58,59,60,61,62,63,
64,65,66,67,68,69,70,71,72,
73,74,75,76,77,78,79,80,81,
83,84,85,86,87,88,89,90,92,
93,94,95,96,97,98,99,101,102,
103,104,105,106,107,108,110,111,112,
113,114,115,116,117,119,120,121,122,
123,124,125,126,128,129,130,131,132,
133,134,135,137,138,139,140,141,142,
143,144,146,147,148,149,150,151,152,
153,155,156,157,158,159,160,161,162,
163,164,165,166,167,168,169,170,172,
173,174,175,176,177,178,179,181,182,
183,184,185,186,187,188,190,191,192,
** ... 246 like lines cut
*NSET, NSET=AXIS_NODES
1,10,19,28,37,46,55,64,73,
163,172,181,190,199,208,217,226,234,
237,277,280,296,299,302,305,308,311,
314,317,
*NSET, NSET=FRONT_NODES
2,3,4,5,6,7,8,9,11,
12,13,14,15,16,17,18,20,21,
22,23,24,25,26,27,29,30,31,
32,33,34,35,36,38,39,40,41,
42,43,44,45,47,48,49,50,51,
52,53,54,56,57,58,59,60,61,
62,63,65,66,67,68,69,70,71,
72,74,75,76,77,78,79,80,81,
83,84,85,86,87,88,89,90,92,
93,94,95,96,97,98,99,101,102,
103,104,105,106,107,108,110,111,112,
113,114,115,116,117,119,120,121,122,
123,124,125,126,128,129,130,131,132,
133,134,135,137,138,139,140,141,142,
143,144,146,147,148,149,150,151,152,
153,155,156,157,158,159,160,161,162,
164,165,166,167,168,169,170,173,174,
175,176,177,178,179,182,183,184,185,
186,187,188,191,192,193,194,195,196,
197,200,201,202,203,204,205,206,209,
** ... 9 like lines cut
*NSET, NSET=TIP_NODE
73,
*NSET, NSET=SHELL_NODES
234,235,236,237,238,239,240,247,248,
250,251,252,259,260,262,263,264,271,
272,274,275,276,90,99,108,117,126,
135,144,153,162,163,164,165,166,167,
168,169,170,277,278,279,280,281,282,
283,290,291,293,294,295,296,297,298,
299,300,301,302,303,304,305,306,307,
308,309,310,311,312,313,314,315,316,
317,318,319,324,325,327,328,330,331,
333,334,336,337,339,340,342,343,345,
346,581,582,584,585,586,593,594,596,
597,598,605,606,608,609,610,617,618,
620,621,622,436,445,454,463,472,481,
490,499,508,510,511,512,513,514,515,
516,624,625,627,628,629,636,637,639,
640,641,643,644,646,647,649,650,652,
653,655,656,658,659,661,662,664,665,
670,671,673,674,676,677,679,680,682,
683,685,686,688,689,691,692,927,928,
930,931,932,939,940,942,943,944,951,
** ... 60 like lines cut
**----------------------------------
** ELEMENTS
**----------------------------------
*ELEMENT, TYPE=C3D8, ELSET=C3D8_ELEMENTS
  2, 357, 358, 349, 348, 11, 12, 3, 2, 
  3, 358, 359, 350, 349, 12, 13, 4, 3, 
  4, 359, 360, 351, 350, 13, 14, 5, 4, 
  5, 360, 361, 352, 351, 14, 15, 6, 5, 
  6, 361, 362, 353, 352, 15, 16, 7, 6, 
  7, 362, 363, 354, 353, 16, 17, 8, 7, 
  8, 363, 364, 355, 354, 17, 18, 9, 8, 
  10, 366, 367, 358, 357, 20, 21, 12, 11, 
  11, 367, 368, 359, 358, 21, 22, 13, 12, 
  12, 368, 369, 360, 359, 22, 23, 14, 13, 
  13, 369, 370, 361, 360, 23, 24, 15, 14, 
  14, 370, 371, 362, 361, 24, 25, 16, 15, 
  15, 371, 372, 363, 362, 25, 26, 17, 16, 
  16, 372, 373, 364, 363, 26, 27, 18, 17, 
  18, 375, 376, 367, 366, 29, 30, 21, 20, 
  19, 376, 377, 368, 367, 30, 31, 22, 21, 
  20, 377, 378, 369, 368, 31, 32, 23, 22, 
  21, 378, 379, 370, 369, 32, 33, 24, 23, 
  22, 379, 380, 371, 370, 33, 34, 25, 24, 
  23, 380, 381, 372, 371, 34, 35, 26, 25, 
** ... 1836 like lines cut
*ELEMENT, TYPE=C3D6, ELSET=C3D6_ELEMENTS
  1, 10, 11, 357, 1, 2, 348, 
  9, 19, 20, 366, 10, 11, 357, 
  17, 28, 29, 375, 19, 20, 366, 
  25, 37, 38, 384, 28, 29, 375, 
  33, 46, 47, 393, 37, 38, 384, 
  41, 55, 56, 402, 46, 47, 393, 
  49, 64, 65, 411, 55, 56, 402, 
  57, 73, 74, 420, 64, 65, 411, 
  129, 172, 173, 519, 163, 164, 510, 
  137, 181, 182, 528, 172, 173, 519, 
  145, 190, 191, 537, 181, 182, 528, 
  153, 199, 200, 546, 190, 191, 537, 
  161, 208, 209, 555, 199, 200, 546, 
  169, 217, 218, 564, 208, 209, 555, 
  177, 226, 227, 573, 217, 218, 564, 
  185, 1, 2, 348, 226, 227, 573, 
  193, 237, 238, 584, 234, 235, 581, 
  197, 163, 164, 510, 237, 238, 584, 
  217, 280, 281, 627, 277, 278, 624, 
  221, 234, 235, 581, 280, 281, 627, 
** ... 204 like lines cut
**----------------------------------
** ELEMENT SETS
**----------------------------------
*ELSET, ELSET=SURFACE_FACES_F3_0
  58, 59, 60, 61, 62, 63, 64, 578, 579,
 580, 581, 582, 583, 584, 1098, 1099, 1100, 1101,
 1102, 1103, 1104, 1618, 1619, 1620, 1621, 1622, 1623,
 1624, 121, 122, 123, 124, 125, 126, 127, 128,
 641, 642, 643, 644, 645, 646, 647, 648, 1161,
 1162, 1163, 1164, 1165, 1166, 1167, 1168, 1681, 1682,
 1683, 1684, 1685, 1686, 1687, 1688, 318, 319, 320,
 321, 322, 323, 324, 838, 839, 840, 841, 842,
 843, 844, 1358, 1359, 1360, 1361, 1362, 1363, 1364,
 1878, 1879, 1880, 1881, 1882, 1883, 1884, 381, 382,
 383, 384, 385, 386, 387, 388, 901, 902, 903,
 904, 905, 906, 907, 908, 1421, 1422, 1423, 1424,
 1425, 1426, 1427, 1428, 1941, 1942, 1943, 1944, 1945,
 1946, 1947, 1948,
*ELSET, ELSET=SURFACE_ELEMENTS
  57, 58, 59, 60, 61, 62, 63, 64, 577,
 578, 579, 580, 581, 582, 583, 584, 1097, 1098,
 1099, 1100, 1101, 1102, 1103, 1104, 1617, 1618, 1619,
 1620, 1621, 1622, 1623, 1624, 121, 122, 123, 124,
 125, 126, 127, 128, 641, 642, 643, 644, 645,
 646, 647, 648, 1161, 1162, 1163, 1164, 1165, 1166,
 1167, 1168, 1681, 1682, 1683, 1684, 1685, 1686, 1687,
 1688, 317, 318, 319, 320, 321, 322, 323, 324,
 837, 838, 839, 840, 841, 842, 843, 844, 1357,
 1358, 1359, 1360, 1361, 1362, 1363, 1364, 1877, 1878,
 1879, 1880, 1881, 1882, 1883, 1884, 381, 382, 383,
 384, 385, 386, 387, 388, 901, 902, 903, 904,
 905, 906, 907, 908, 1421, 1422, 1423, 1424, 1425,
 1426, 1427, 1428, 1941, 1942, 1943, 1944, 1945, 1946,
 1947, 1948,
*ELSET, ELSET=SURFACE_FACES_F1_0
  577, 837, 1097, 1357, 1617, 1877, 57, 317,
*ELSET, ELSET=ALL_ELEMENTS
  1, 2, 3, 4, 5, 6, 7, 8, 9,
 10, 11, 12, 13, 14, 15, 16, 17, 18,
 19, 20, 21, 22, 23, 24, 25, 26, 27,
 28, 29, 30, 31, 32, 33, 34, 35, 36,
 37, 38, 39, 40, 41, 42, 43, 44, 45,
 46, 47, 48, 49, 50, 51, 52, 53, 54,
 55, 56, 57, 58, 59, 60, 61, 62, 63,
 64, 65, 66, 67, 68, 69, 70, 71, 72,
 73, 74, 75, 76, 77, 78, 79, 80, 81,
 82, 83, 84, 85, 86, 87, 88, 89, 90,
 91, 92, 93, 94, 95, 96, 97, 98, 99,
 100, 101, 102, 103, 104, 105, 106, 107, 108,
 109, 110, 111, 112, 113, 114, 115, 116, 117,
 118, 119, 120, 121, 122, 123, 124, 125, 126,
 127, 128, 129, 130, 131, 132, 133, 134, 135,
 136, 137, 138, 139, 140, 141, 142, 143, 144,
 145, 146, 147, 148, 149, 150, 151, 152, 153,
 154, 155, 156, 157, 158, 159, 160, 161, 162,
 163, 164, 165, 166, 167, 168, 169, 170, 171,
 172, 173, 174, 175, 176, 177, 178, 179, 180,
** ... 212 like lines cut
*ELSET, ELSET=SHELL_ELEMENTS
  2048, 2049, 2050, 2051, 2052, 2053, 2054, 2055, 2056,
 2057, 2058, 2059, 2060, 2061, 2062, 2063, 2064, 2065,
 2066, 2067, 2068, 2069, 2070, 2071, 2072, 2073, 2074,
 2075, 2076, 2077, 2078, 2079, 2080, 193, 194, 195,
 196, 197, 198, 199, 200, 201, 202, 203, 204,
 205, 206, 207, 208, 209, 210, 211, 212, 213,
 214, 215, 216, 217, 218, 219, 220, 221, 222,
 223, 224, 225, 226, 227, 228, 229, 230, 231,
 232, 233, 234, 235, 236, 237, 238, 239, 240,
 241, 242, 243, 244, 245, 246, 247, 248, 249,
 250, 251, 252, 253, 254, 255, 256, 257, 258,
 259, 260, 453, 454, 455, 456, 457, 458, 459,
 460, 461, 462, 463, 464, 465, 466, 467, 468,
 469, 470, 471, 472, 473, 474, 475, 476, 477,
 478, 479, 480, 481, 482, 483, 484, 485, 486,
 487, 488, 489, 490, 491, 492, 493, 494, 495,
 496, 497, 498, 499, 500, 501, 502, 503, 504,
 505, 506, 507, 508, 509, 510, 511, 512, 513,
 514, 515, 516, 517, 518, 519, 520, 713, 714,
 715, 716, 717, 718, 719, 720, 721, 722, 723,
** ... 41 like lines cut
*ELSET, ELSET=CORE_ELEMENTS
  1, 2, 3, 4, 5, 6, 7, 8, 9,
 10, 11, 12, 13, 14, 15, 16, 17, 18,
 19, 20, 21, 22, 23, 24, 25, 26, 27,
 28, 29, 30, 31, 32, 33, 34, 35, 36,
 37, 38, 39, 40, 41, 42, 43, 44, 45,
 46, 47, 48, 49, 50, 51, 52, 53, 54,
 55, 56, 57, 58, 59, 60, 61, 62, 63,
 64, 65, 66, 67, 68, 69, 70, 71, 72,
 73, 74, 75, 76, 77, 78, 79, 80, 81,
 82, 83, 84, 85, 86, 87, 88, 89, 90,
 91, 92, 93, 94, 95, 96, 97, 98, 99,
 100, 101, 102, 103, 104, 105, 106, 107, 108,
 109, 110, 111, 112, 113, 114, 115, 116, 117,
 118, 119, 120, 121, 122, 123, 124, 125, 126,
 127, 128, 129, 130, 131, 132, 133, 134, 135,
 136, 137, 138, 139, 140, 141, 142, 143, 144,
 145, 146, 147, 148, 149, 150, 151, 152, 153,
 154, 155, 156, 157, 158, 159, 160, 161, 162,
 163, 164, 165, 166, 167, 168, 169, 170, 171,
 172, 173, 174, 175, 176, 177, 178, 179, 180,
** ... 151 like lines cut
**----------------------------------
** ELEMENT SURFACES
**----------------------------------
*SURFACE, TYPE=ELEMENT, NAME=SURFACE_FACES
 surface_faces_f1_0, S1
 surface_faces_f3_0, S3
**----------------------------------
** CSYS CHANGE TO CYLINDRICAL
**----------------------------------
*TRANSFORM, TYPE=C, NSET=FRONT_NODES
 0., 0., 0., 0., 1.,0.    
*TRANSFORM, TYPE=C, NSET=BACK_NODES
 0., 0., 0., 0., 1.,0.
**----------------------------------
** SOLID SECTION
**----------------------------------
*SOLID SECTION, ELSET = ALL_ELEMENTS, MATERIAL = INDENTER_MAT
**----------------------------------
** RIGID BODY
**----------------------------------
*RIGID BODY, REF NODE = REF_NODE, PIN NSET=RIGID_NODES
*END PART
**----------------------------------
** ASSEMBLY
**----------------------------------
*ASSEMBLY, NAME = ASSEMBLY
*INSTANCE, NAME = I_SAMPLE, PART = P_SAMPLE
*END INSTANCE
*INSTANCE, NAME = I_INDENTER, PART= P_INDENTER
*END INSTANCE
*END ASSEMBLY
**----------------------------------
** SURFACE INTERACTIONS
**----------------------------------
*SURFACE INTERACTION, NAME = SURF_INT
*FRICTION
0.0,
*SURFACE BEHAVIOR, PRESSURE-OVERCLOSURE = HARD
*CONTACT PAIR, INTERACTION = SURF_INT, SUPPLEMENTARY CONSTRAINTS = NO, TYPE= NODE TO SURFACE
I_SAMPLE.SURFACE_FACES, I_INDENTER.SURFACE_FACES
**----------------------------------
** MATERIALS
**----------------------------------
** SAMPLE MATERIAL
** <VonMises instance: 1 samples>
*MATERIAL, NAME=SAMPLE_MAT
*ELASTIC
  1.0, 0.3
*PLASTIC
  0.01, 0.
** INDENTER MATERIAL
** <Elastic instance: 1 samples>
*MATERIAL, NAME=INDENTER_MAT
*ELASTIC
  1.0, 0.3
**----------------------------------
** STEPS
**----------------------------------
*STEP, NAME = PRELOADING, NLGEOM = YES, INC=1000000
*STATIC, DIRECT
0.01, 1.
*BOUNDARY
I_SAMPLE.AXIS_NODES, 1, 1
I_SAMPLE.BOTTOM_NODES, 1, 3
I_SAMPLE.FRONT_NODES, 2, 2
I_SAMPLE.BACK_NODES, 2, 2
I_SAMPLE.AXIS_NODES, 3, 3
I_INDENTER.REF_NODE, 3, 6
I_INDENTER.XSYM_NODES, 1, 1
I_INDENTER.XSYM_NODES, 3, 3
I_INDENTER.REF_NODE, 4, 6 
I_INDENTER.REF_NODE, 2, 2, -0.214393132828
*RESTART, WRITE, FREQUENCY = 0
*OUTPUT, FIELD, FREQUENCY = 999999
*NODE OUTPUT
COORD, U, 
*NODE OUTPUT, NSET=I_INDENTER.REF_NODE
U
*ELEMENT OUTPUT, ELSET=I_SAMPLE.ALL_ELEMENTS, DIRECTIONS = YES
LE, EE, PE, PEEQ, S, 
*ELEMENT OUTPUT, ELSET=I_INDENTER.ALL_ELEMENTS, DIRECTIONS = YES
LE, EE, PE, PEEQ, S, 
*OUTPUT, HISTORY
*ENERGY OUTPUT
ALLFD, ALLWK
*ENERGY OUTPUT, ELSET=I_SAMPLE.ALL_ELEMENTS
ALLPD
*ENERGY OUTPUT, ELSET=I_SAMPLE.ALL_ELEMENTS
ALLSE
*ENERGY OUTPUT, ELSET=I_INDENTER.ALL_ELEMENTS
ALLSE
*CONTACT OUTPUT, NSET=I_SAMPLE.TOP_NODES
CPRESS
*NODE OUTPUT, NSET=I_INDENTER.REF_NODE
U2
*NODE OUTPUT, NSET=I_INDENTER.TIP_NODE
U2
*NODE OUTPUT, NSET=I_INDENTER.REF_NODE
RF2
*NODE OUTPUT, NSET = I_SAMPLE.TOP_NODES
COOR1, COOR2, COOR3
*END STEP
*STEP, NAME = LOADING, NLGEOM = YES, INC=1000000
*STATIC, DIRECT
0.01, 1.
*BOUNDARY
I_SAMPLE.AXIS_NODES, 1, 1
I_SAMPLE.BOTTOM_NODES, 1, 3
I_SAMPLE.FRONT_NODES, 2, 2
I_SAMPLE.BACK_NODES, 2, 2
I_SAMPLE.AXIS_NODES, 3, 3
I_INDENTER.REF_NODE, 3, 6
I_INDENTER.XSYM_NODES, 1, 1
I_INDENTER.XSYM_NODES, 3, 3
I_INDENTER.REF_NODE, 4, 6 
I_INDENTER.REF_NODE, 2, 2, -0.428786265656
*RESTART, WRITE, FREQUENCY = 0
*OUTPUT, FIELD, FREQUENCY = 999999
*NODE OUTPUT
COORD, U, 
*NODE OUTPUT, NSET=I_INDENTER.REF_NODE
U
*ELEMENT OUTPUT, ELSET=I_SAMPLE.ALL_ELEMENTS, DIRECTIONS = YES
LE, EE, PE, PEEQ, S, 
*ELEMENT OUTPUT, ELSET=I_INDENTER.ALL_ELEMENTS, DIRECTIONS = YES
LE, EE, PE, PEEQ, S, 
*OUTPUT, HISTORY
*ENERGY OUTPUT
ALLFD, ALLWK
*ENERGY OUTPUT, ELSET=I_SAMPLE.ALL_ELEMENTS
ALLPD
*ENERGY OUTPUT, ELSET=I_SAMPLE.ALL_ELEMENTS
ALLSE
*ENERGY OUTPUT, ELSET=I_INDENTER.ALL_ELEMENTS
ALLSE
*CONTACT OUTPUT, NSET=I_SAMPLE.TOP_NODES
CPRESS
*NODE OUTPUT, NSET=I_INDENTER.REF_NODE
U2
*NODE OUTPUT, NSET=I_INDENTER.TIP_NODE
U2
*NODE OUTPUT, NSET=I_INDENTER.REF_NODE
RF2
*NODE OUTPUT, NSET = I_SAMPLE.TOP_NODES
COOR1, COOR2, COOR3
*END STEP
*STEP, NAME = UNLOADING, NLGEOM = YES, INC=1000000
*STATIC, DIRECT
0.005, 1.
*BOUNDARY
I_SAMPLE.AXIS_NODES, 1, 1
I_SAMPLE.BOTTOM_NODES, 1, 3
I_SAMPLE.FRONT_NODES, 2, 2
I_SAMPLE.BACK_NODES, 2, 2
I_SAMPLE.AXIS_NODES, 3, 3
I_INDENTER.REF_NODE, 3, 6
I_INDENTER.XSYM_NODES, 1, 1
I_INDENTER.XSYM_NODES, 3, 3
I_INDENTER.REF_NODE, 4, 6 
I_INDENTER.REF_NODE, 2, 2, -0.0
*RESTART, WRITE, FREQUENCY = 0
*OUTPUT, FIELD, FREQUENCY = 999999
*NODE OUTPUT
COORD, U, 
*NODE OUTPUT, NSET=I_INDENTER.REF_NODE
U
*ELEMENT OUTPUT, ELSET=I_SAMPLE.ALL_ELEMENTS, DIRECTIONS = YES
LE, EE, PE, PEEQ, S, 
*ELEMENT OUTPUT, ELSET=I_INDENTER.ALL_ELEMENTS, DIRECTIONS = YES
LE, EE, PE, PEEQ, S, 
*OUTPUT, HISTORY
*ENERGY OUTPUT
ALLFD, ALLWK
*ENERGY OUTPUT, ELSET=I_SAMPLE.ALL_ELEMENTS
ALLPD
*ENERGY OUTPUT, ELSET=I_SAMPLE.ALL_ELEMENTS
ALLSE
*ENERGY OUTPUT, ELSET=I_INDENTER.ALL_ELEMENTS
ALLSE
*CONTACT OUTPUT, NSET=I_SAMPLE.TOP_NODES
CPRESS
*NODE OUTPUT, NSET=I_INDENTER.REF_NODE
U2
*NODE OUTPUT, NSET=I_INDENTER.TIP_NODE
U2
*NODE OUTPUT, NSET=I_INDENTER.REF_NODE
RF2
*NODE OUTPUT, NSET = I_SAMPLE.TOP_NODES
COOR1, COOR2, COOR3
*END STEP
